<?xml version="1.0" encoding="UTF-8"?>

<net version="1.20" junctionCornerDetail="5" limitTurnSpeed="5.50" xmlns:xsi="http://www.w3.org/2001/XMLSchema-instance" xsi:noNamespaceSchemaLocation="http://sumo.dlr.de/xsd/net_file.xsd">

    <location netOffset="85.03,26.17" convBoundary="0.00,0.00,3250.00,0.00" origBoundary="-85.03,-26.17,270.54,-0.17" projParameter="!"/>

    <edge id=":0_0" function="internal">
        <lane id=":0_0_0" index="0" speed="30.56" length="1.00" width="3.50" shape="2001.48,-3.50 2002.48,-3.50"/>
        <lane id=":0_0_1" index="1" speed="30.56" length="1.00" width="3.50" shape="2001.48,0.00 2002.48,0.00"/>
        <lane id=":0_0_2" index="2" speed="30.56" length="1.00" width="3.50" shape="2001.48,3.50 2002.48,3.50"/>
    </edge>
    <edge id=":1_0" function="internal">
        <lane id=":1_0_0" index="0" speed="30.56" length="3.88" width="3.50" shape="2253.89,-3.50 2257.77,-3.50"/>
        <lane id=":1_0_1" index="1" speed="30.56" length="3.88" width="3.50" shape="2253.89,0.00 2257.77,0.00"/>
        <lane id=":1_0_2" index="2" speed="30.56" length="3.88" width="3.50" shape="2253.89,3.50 2257.77,3.50"/>
    </edge>

    <edge id="1" from="1-begin" to="0" priority="-1" type="1" spreadType="center" shape="0.00,0.00 2001.48,0.00">
        <lane id="1_0" index="0" speed="30.56" length="2001.48" width="3.50" shape="-0.00,-3.50 2001.48,-3.50"/>
        <lane id="1_1" index="1" speed="30.56" length="2001.48" width="3.50" shape="-0.00,0.00 2001.48,0.00"/>
        <lane id="1_2" index="2" speed="30.56" length="2001.48" width="3.50" shape="-0.00,3.50 2001.48,3.50"/>
    </edge>
    <edge id="3" from="0" to="1" priority="-1" type="1" spreadType="center" length="247.97" shape="2002.48,0.00 2250.00,0.00">
        <lane id="3_0" index="0" speed="30.56" length="247.97" width="3.50" acceleration="1" shape="2002.48,-3.50 2253.89,-3.50"/>
        <lane id="3_1" index="1" speed="30.56" length="247.97" width="3.50" shape="2002.48,0.00 2253.89,0.00"/>
        <lane id="3_2" index="2" speed="30.56" length="247.97" width="3.50" shape="2002.48,3.50 2253.89,3.50"/>
    </edge>
    <edge id="4" from="1" to="4-end" priority="-1" type="1" spreadType="center" length="1200.00" shape="2257.77,0.00 3250.00,0.00">
        <lane id="4_0" index="0" speed="30.56" length="1200.00" width="3.50" shape="2257.77,-3.50 3250.00,-3.50"/>
        <lane id="4_1" index="1" speed="30.56" length="1200.00" width="3.50" shape="2257.77,0.00 3250.00,0.00"/>
        <lane id="4_2" index="2" speed="30.56" length="1200.00" width="3.50" shape="2257.77,3.50 3250.00,3.50"/>
    </edge>

    <junction id="0" type="priority" x="2000.00" y="0.00" incLanes="1_0 1_1 1_2" intLanes=":0_0_0 :0_0_1 :0_0_2" shape="2002.48,5.25 2002.48,-5.25 2001.48,-5.25 2001.48,5.25">
        <request index="0" response="000" foes="000" cont="0"/>
        <request index="1" response="000" foes="000" cont="0"/>
        <request index="2" response="000" foes="000" cont="0"/>
    </junction>
    <junction id="1" type="priority" x="2250.00" y="0.00" incLanes="3_0 3_1 3_2" intLanes=":1_0_0 :1_0_1 :1_0_2" shape="2257.77,5.25 2257.77,-5.25 2253.89,-5.25 2253.89,5.25">
        <request index="0" response="000" foes="000" cont="0"/>
        <request index="1" response="000" foes="000" cont="0"/>
        <request index="2" response="000" foes="000" cont="0"/>
    </junction>
    <junction id="1-begin" type="dead_end" x="0.00" y="0.00" incLanes="" intLanes="" shape="-0.00,5.25 -0.00,-5.25"/>
    <junction id="4-end" type="dead_end" x="3250.00" y="0.00" incLanes="4_0 4_1 4_2" intLanes="" shape="3250.00,-5.25 3250.00,5.25"/>

    <connection from="1" to="3" fromLane="0" toLane="0" via=":0_0_0" dir="s" state="M"/>
    <connection from="1" to="3" fromLane="1" toLane="1" via=":0_0_1" dir="s" state="M"/>
    <connection from="1" to="3" fromLane="2" toLane="2" via=":0_0_2" dir="s" state="M"/>
    <connection from="3" to="4" fromLane="0" toLane="0" via=":1_0_0" dir="s" state="M"/>
    <connection from="3" to="4" fromLane="1" toLane="1" via=":1_0_1" dir="s" state="M"/>
    <connection from="3" to="4" fromLane="2" toLane="2" via=":1_0_2" dir="s" state="M"/>

    <connection from=":0_0" to="3" fromLane="0" toLane="0" dir="s" state="M"/>
    <connection from=":0_0" to="3" fromLane="1" toLane="1" dir="s" state="M"/>
    <connection from=":0_0" to="3" fromLane="2" toLane="2" dir="s" state="M"/>
    <connection from=":1_0" to="4" fromLane="0" toLane="0" dir="s" state="M"/>
    <connection from=":1_0" to="4" fromLane="1" toLane="1" dir="s" state="M"/>
    <connection from=":1_0" to="4" fromLane="2" toLane="2" dir="s" state="M"/>

</net>

