<routes>
        <vType id="HDV_0" length="5.00" accel="2" decel="3" emergencyDecel="3" mingap="2" tau="2" color="127,255,0" carFollowModel="IDM"/>
        <vType id="HDV_1" length="5.00" accel="3" decel="3" emergencyDecel="3" mingap="2" tau="2" color="127,255,0" carFollowModel="IDM"/>

        <route id="r_1" edges="1 3 4"/>
        <route id="r_2" edges="2 3 4"/>
<flow id="flow_HDV_0" begin="0" end="3600" vehsPerHour="5400" departSpeed="max" type="HDV_0" route="r_1" departLane="random" lcKeepRight="0">
</flow>
<flow id="flow_HDV_1" begin="0" end="3600" vehsPerHour="500" departSpeed="max" type="HDV_1" route="r_2" departLane="random" lcKeepRight="0">
</flow>
</routes>
