<routes>
        <vType id="HDV_ori" length="5.00" accel="1.5" decel="3.5" emergencyDecel="3.5" mingap="3.5" tau="2.0" color="127,255,0" carFollowModel="IDM"/>
        <vType id="CAV_ori" length="5.00" accel="2.6" decel="4.5" emergencyDecel="4.5" mingap="2.0" tau="1.1" color="255,0,0" carFollowModel="CACC"/>

        <route id="r_1" edges="1 3 4"/>
        <route id="r_2" edges="2 3 4"/>
<flow id="flow_HDV_0" begin="0" end="3600" vehsPerHour="2160" departSpeed="max" type="HDV_ori" route="r_1" departLane="random" lcKeepRight="0">
</flow>
<flow id="flow_CAV_0" begin="0" end="3600" vehsPerHour="3240" departSpeed="max" type="CAV_ori" route="r_1" departLane="random" lcKeepRight="0">
</flow>
<flow id="flow_HDV_1" begin="0" end="3600" vehsPerHour="480" departSpeed="max" type="HDV_ori" route="r_2" departLane="random" lcKeepRight="0">
</flow>
<flow id="flow_CAV_1" begin="0" end="3600" vehsPerHour="720" departSpeed="max" type="CAV_ori" route="r_2" departLane="random" lcKeepRight="0">
</flow>
</routes>
